*EKV model
*Created with Matlab
*by Nicola Scolari

.model n nmos
+cox = 0.0034
+xj = 1.3e-007
+vto = 0.61
+gamma = 0.66
+phi = 0.8
+kp = 0.000169
+e0 = 99000000
+ucrit = 4300000
+dl = -7e-008
+dw = 2.5e-008
+lambda = 0.27
+leta = 0.39
+weta = 0.1
+q0 = 0.00023
+lk = 6.6e-007
+iba = 260000000
+ibb = 375000000
+ibn = 1
+theta = 0
+ekvint = 0
+tcv = 0.0017
+bex = -1.57
+ucex = 1.6
+ibbt = 0
+avto = 0
+akp = 0
+agamma = 0
+kf = 1.6e-024
+af = 1
+nqs = 0
+satlim = 54.5982
+xqc = 0.4
+ekvdyn = 0
+type = 1
+update = 26
