*EKV model
*Created with Matlab
*by Nicola Scolari

.model p pmos
+cox = 0.0034
+xj = 1e-007
+vto = 0.57
+gamma = 0.64
+phi = 0.68
+kp = 3.96e-005
+e0 = 56400000
+ucrit = 20000000
+dl = -5e-008
+dw = 1.4e-007
+lambda = 1.2
+leta = 0.51
+weta = 0.01
+q0 = 0.00018
+lk = 6.7e-007
+iba = 200000000
+ibb = 595000000
+ibn = 1
+theta = 0
+ekvint = 0
+tcv = -0.00136
+bex = -1.22
+ucex = 2
+ibbt = 0
+avto = 0
+akp = 0
+agamma = 0
+kf = 2.06e-025
+af = 1
+nqs = 0
+satlim = 54.5982
+xqc = 0.4
+ekvdyn = 0
+type = 0
+update = 26
