*EKV model
*Created with Matlab
*by Nicola Scolari

.model p pmos
+cox = 0.00345
+xj = 1.5e-007
+vto = 0.7
+gamma = 0.7
+phi = 0.5
+kp = 0.00015
+e0 = 200000000
+ucrit = 2300000
+dl = -7.5e-008
+dw = -7.5e-008
+lambda = 0.8
+leta = 0.3
+weta = 0.2
+q0 = 0.00023
+lk = 4e-007
+iba = 200000000
+ibb = 200000000
+ibn = 0.6
+theta = 0
+ekvint = 0
+tcv = 0.001
+bex = -1.5
+ucex = 0.8
+ibbt = 0.0009
+avto = 0
+akp = 0
+agamma = 0
+kf = 0
+af = 0
+nqs = 0
+satlim = 54.5982
+xqc = 0.4
+ekvdyn = 0
+type = 0
+update = 26
